*Heading
** Job name: Job-1 Model name: Model-1
** Generated by: Abaqus/CAE 2017
*Preprint, echo=NO, model=NO, history=NO, contact=NO
**
** PARTS
**
*Part, name=Plate
*Node
      1,           0.,           0.
      2,  0.100000001,           0.
      3,  0.200000003,           0.
      4,  0.300000012,           0.
      5,  0.400000006,           0.
      6,          0.5,           0.
      7,  0.600000024,           0.
      8,  0.699999988,           0.
      9,  0.800000012,           0.
     10,  0.899999976,           0.
     11,           1.,           0.
     12,   1.10000002,           0.
     13,   1.20000005,           0.
     14,   1.29999995,           0.
     15,   1.39999998,           0.
     16,          1.5,           0.
     17,   1.60000002,           0.
     18,   1.70000005,           0.
     19,   1.79999995,           0.
     20,   1.89999998,           0.
** ... 421 like lines cut
*Element, type=DC2D4
  1,   1,   2,  23,  22
  2,   2,   3,  24,  23
  3,   3,   4,  25,  24
  4,   4,   5,  26,  25
  5,   5,   6,  27,  26
  6,   6,   7,  28,  27
  7,   7,   8,  29,  28
  8,   8,   9,  30,  29
  9,   9,  10,  31,  30
 10,  10,  11,  32,  31
 11,  11,  12,  33,  32
 12,  12,  13,  34,  33
 13,  13,  14,  35,  34
 14,  14,  15,  36,  35
 15,  15,  16,  37,  36
 16,  16,  17,  38,  37
 17,  17,  18,  39,  38
 18,  18,  19,  40,  39
 19,  19,  20,  41,  40
 20,  20,  21,  42,  41
** ... 380 like lines cut
*Nset, nset=Set-1, generate
   1,  441,    1
*Elset, elset=Set-1, generate
   1,  400,    1
** Section: Section-1
*Solid Section, elset=Set-1, material=Material-1
,
*End Part
**  
**
** ASSEMBLY
**
*Assembly, name=Assembly
**  
*Instance, name=Plate-1, part=Plate
*End Instance
**  
*Nset, nset=Set-1, instance=Plate-1, generate
   1,  421,   21
*Elset, elset=Set-1, instance=Plate-1, generate
   1,  381,   20
*Nset, nset=Set-2, instance=Plate-1, generate
   1,  441,    1
*Elset, elset=Set-2, instance=Plate-1, generate
   1,  400,    1
*Elset, elset=_Surf-1_S2, internal, instance=Plate-1, generate
  20,  400,   20
*Surface, type=ELEMENT, name=Surf-1
_Surf-1_S2, S2
*End Assembly
** 
** MATERIALS
** 
*Material, name=Material-1
*Conductivity
2.,
** ----------------------------------------------------------------
** 
** STEP: Step-1
** 
*Step, name=Step-1, nlgeom=NO
*Heat Transfer, steady state, deltmx=0.
1., 1., 1e-05, 1., 
** 
** BOUNDARY CONDITIONS
** 
** Name: BC-u Type: Temperature
*Boundary
Set-1, 11, 11, 20.
** 
** LOADS
** 
** Name: Load-1   Type: Surface heat flux
*Dsflux
Surf-1, S, -5.
** Name: Load-2   Type: Body heat flux Using Field: AnalyticalField-1
*Dflux
Plate-1.1, BF, 0.1025
Plate-1.2, BF, 0.3025
Plate-1.3, BF, 0.5025
Plate-1.4, BF, 0.7025
Plate-1.5, BF, 0.9025
Plate-1.6, BF, 1.1025
Plate-1.7, BF, 1.3025
Plate-1.8, BF, 1.5025
Plate-1.9, BF, 1.7025
Plate-1.10, BF, 1.9025
Plate-1.11, BF, 2.1025
Plate-1.12, BF, 2.3025
Plate-1.13, BF, 2.5025
Plate-1.14, BF, 2.7025
Plate-1.15, BF, 2.9025
Plate-1.16, BF, 3.1025
Plate-1.17, BF, 3.3025
Plate-1.18, BF, 3.5025
Plate-1.19, BF, 3.7025
Plate-1.20, BF, 3.9025
** ... 380 like lines cut
** 
** OUTPUT REQUESTS
** 
*Restart, write, frequency=0
** 
** FIELD OUTPUT: F-Output-1
** 
*Output, field, variable=PRESELECT
** 
** HISTORY OUTPUT: H-Output-1
** 
*Output, history
*Radiation Output
FTEMP, 
*End Step
